Circuit: * C:\Users\Unixt\OneDrive\Desktop\Temp measurement\Differential.asc

Limiting rise time of source v6 to 0.2
Limiting fall time of source v6 to 0.2
Limiting rise time of source v5 to 0.2
Limiting fall time of source v5 to 0.2
Direct Newton iteration failed to find .op point.  (Use ".option noopiter" to skip.)
Starting Gmin stepping
Gmin = 10
Gmin = 1.07374
Gmin = 0.115292
Gmin = 0.0123794
Gmin = 0.00132923
Gmin = 0.000142725
Gmin = 1.5325e-005
Gmin = 1.6455e-006
Gmin = 1.76685e-007
Gmin = 1.89714e-008
Gmin = 2.03704e-009
Gmin = 2.18725e-010
Gmin = 2.34854e-011
Gmin = 2.52173e-012
Gmin = 2.70769e-013
Gmin = 0
Gmin stepping succeeded in finding the operating point.


Date: Sat Feb 20 15:28:30 2021
Total elapsed time: 0.256 seconds.

tnom = 27
temp = 27
method = modified trap
totiter = 41786
traniter = 41368
tranpoints = 20663
accept = 13635
rejected = 7028
matrix size = 32
fillins = 2
solver = Normal
Matrix Compiler1: 1.21 KB object code size  0.3/0.1/[0.1]
Matrix Compiler2: 2.46 KB object code size  0.2/0.3/[0.1]

